<?xml version="1.0" encoding="UTF-8"?>

<!-- generated on Sat 07 Dec 2019 06:08:58 PM EST by Eclipse SUMO netedit Version 1.3.1
<configuration xmlns:xsi="http://www.w3.org/2001/XMLSchema-instance" xsi:noNamespaceSchemaLocation="http://sumo.dlr.de/xsd/netconvertConfiguration.xsd">

    <input>
        <sumo-net-file value="mape.net.xml"/>
    </input>

    <output>
        <output-file value="mape.net.xml"/>
        <output.street-names value="true"/>
    </output>

    <processing>
        <geometry.max-grade.fix value="false"/>
        <offset.disable-normalization value="true"/>
        <opposites.guess.fix-lengths value="true"/>
        <lefthand value="false"/>
    </processing>

    <junctions>
        <no-turnarounds value="true"/>
        <junctions.corner-detail value="5"/>
        <junctions.limit-turn-speed value="5.5"/>
        <rectangular-lane-cut value="false"/>
    </junctions>

    <pedestrian>
        <walkingareas value="false"/>
    </pedestrian>

</configuration>
-->

<net version="1.3" junctionCornerDetail="5" limitTurnSpeed="5.50" xmlns:xsi="http://www.w3.org/2001/XMLSchema-instance" xsi:noNamespaceSchemaLocation="http://sumo.dlr.de/xsd/net_file.xsd">

    <location netOffset="-578865.48,-3624538.44" convBoundary="0.00,0.00,29732.58,32026.41" origBoundary="-80.402692,32.668589,-79.673678,33.095947" projParameter="+proj=utm +zone=17 +ellps=WGS84 +datum=WGS84 +units=m +no_defs"/>

    <type id="highway.bridleway" priority="1" numLanes="1" speed="2.78" allow="pedestrian" oneway="1" width="2.00"/>
    <type id="highway.bus_guideway" priority="1" numLanes="1" speed="27.78" allow="bus" oneway="1"/>
    <type id="highway.cycleway" priority="1" numLanes="1" speed="8.33" allow="bicycle" oneway="0" width="1.00"/>
    <type id="highway.footway" priority="1" numLanes="1" speed="2.78" allow="pedestrian" oneway="1" width="2.00"/>
    <type id="highway.ford" priority="1" numLanes="1" speed="2.78" allow="army" oneway="0"/>
    <type id="highway.living_street" priority="2" numLanes="1" speed="2.78" disallow="tram rail_urban rail rail_electric ship" oneway="0"/>
    <type id="highway.motorway" priority="14" numLanes="2" speed="39.44" allow="private emergency authority army vip passenger hov taxi bus coach delivery truck trailer motorcycle evehicle custom1 custom2" oneway="1"/>
    <type id="highway.motorway_link" priority="9" numLanes="1" speed="22.22" allow="private emergency authority army vip passenger hov taxi bus coach delivery truck trailer motorcycle evehicle custom1 custom2" oneway="1"/>
    <type id="highway.path" priority="1" numLanes="1" speed="2.78" allow="pedestrian bicycle" oneway="1" width="2.00"/>
    <type id="highway.pedestrian" priority="1" numLanes="1" speed="2.78" allow="pedestrian" oneway="1" width="2.00"/>
    <type id="highway.primary" priority="12" numLanes="2" speed="27.78" disallow="tram rail_urban rail rail_electric ship" oneway="0"/>
    <type id="highway.primary_link" priority="7" numLanes="1" speed="22.22" disallow="tram rail_urban rail rail_electric ship" oneway="0"/>
    <type id="highway.raceway" priority="15" numLanes="2" speed="83.33" allow="vip" oneway="0"/>
    <type id="highway.residential" priority="3" numLanes="1" speed="13.89" disallow="tram rail_urban rail rail_electric ship" oneway="0"/>
    <type id="highway.secondary" priority="11" numLanes="2" speed="27.78" disallow="tram rail_urban rail rail_electric ship" oneway="0"/>
    <type id="highway.secondary_link" priority="6" numLanes="1" speed="22.22" disallow="tram rail_urban rail rail_electric ship" oneway="0"/>
    <type id="highway.service" priority="1" numLanes="1" speed="5.56" allow="pedestrian delivery bicycle" oneway="0"/>
    <type id="highway.service|railway.tram" priority="17" numLanes="1" speed="13.89" allow="pedestrian delivery bicycle tram" oneway="0"/>
    <type id="highway.stairs" priority="1" numLanes="1" speed="1.39" allow="pedestrian" oneway="1" width="2.00"/>
    <type id="highway.step" priority="1" numLanes="1" speed="1.39" allow="pedestrian" oneway="1" width="2.00"/>
    <type id="highway.steps" priority="1" numLanes="1" speed="1.39" allow="pedestrian" oneway="1" width="2.00"/>
    <type id="highway.tertiary" priority="10" numLanes="1" speed="22.22" disallow="tram rail_urban rail rail_electric ship" oneway="0"/>
    <type id="highway.tertiary_link" priority="5" numLanes="1" speed="22.22" disallow="tram rail_urban rail rail_electric ship" oneway="0"/>
    <type id="highway.track" priority="1" numLanes="1" speed="5.56" disallow="tram rail_urban rail rail_electric ship" oneway="0"/>
    <type id="highway.trunk" priority="13" numLanes="2" speed="27.78" disallow="pedestrian bicycle tram rail_urban rail rail_electric ship" oneway="0"/>
    <type id="highway.trunk_link" priority="8" numLanes="1" speed="22.22" disallow="pedestrian bicycle tram rail_urban rail rail_electric ship" oneway="0"/>
    <type id="highway.unclassified" priority="4" numLanes="1" speed="13.89" disallow="tram rail_urban rail rail_electric ship" oneway="0"/>
    <type id="highway.unsurfaced" priority="1" numLanes="1" speed="8.33" disallow="tram rail_urban rail rail_electric ship" oneway="0"/>
    <type id="railway.light_rail" priority="19" numLanes="1" speed="27.78" allow="rail_urban" oneway="1"/>
    <type id="railway.preserved" priority="16" numLanes="1" speed="27.78" allow="rail" oneway="1"/>
    <type id="railway.rail" priority="20" numLanes="1" speed="83.33" allow="rail rail_electric" oneway="1"/>
    <type id="railway.subway" priority="18" numLanes="1" speed="27.78" allow="rail_urban" oneway="1"/>
    <type id="railway.tram" priority="17" numLanes="1" speed="13.89" allow="tram" oneway="1"/>

    <edge id=":100635770_0" function="internal">
        <lane id=":100635770_0_0" index="0" allow="private emergency authority army vip passenger hov taxi bus coach delivery truck trailer motorcycle evehicle custom1 custom2" speed="30.89" length="0.28" shape="19563.95,5740.00 19564.02,5739.79"/>
        <lane id=":100635770_0_1" index="1" allow="private emergency authority army vip passenger hov taxi bus coach delivery truck trailer motorcycle evehicle custom1 custom2" speed="30.89" length="0.28" shape="19567.01,5740.95 19567.09,5740.69"/>
        <lane id=":100635770_0_2" index="2" allow="private emergency authority army vip passenger hov taxi bus coach delivery truck trailer motorcycle evehicle custom1 custom2" speed="30.89" length="0.28" shape="19570.06,5741.91 19570.16,5741.58"/>
    </edge>
    <edge id=":1034399692_0" function="internal">
        <lane id=":1034399692_0_0" index="0" allow="private emergency authority army vip passenger hov taxi bus coach delivery truck trailer motorcycle evehicle custom1 custom2" speed="26.82" length="0.44" shape="12943.52,15311.40 12943.54,15311.99"/>
        <lane id=":1034399692_0_1" index="1" allow="private emergency authority army vip passenger hov taxi bus coach delivery truck trailer motorcycle evehicle custom1 custom2" speed="26.82" length="0.44" shape="12940.33,15311.58 12940.34,15312.02"/>
        <lane id=":1034399692_0_2" index="2" allow="private emergency authority army vip passenger hov taxi bus coach delivery truck trailer motorcycle evehicle custom1 custom2" speed="26.82" length="0.44" shape="12937.13,15311.76 12937.14,15312.06"/>
    </edge>
    <edge id=":110058969_0" function="internal">
        <lane id=":110058969_0_0" index="0" allow="private emergency authority army vip passenger hov taxi bus coach delivery truck trailer motorcycle evehicle custom1 custom2" speed="22.22" length="0.10" shape="12770.41,10808.34 12770.41,10808.34"/>
    </edge>
    <edge id=":110066682_0" function="internal">
        <lane id=":110066682_0_0" index="0" allow="private emergency authority army vip passenger hov taxi bus coach delivery truck trailer motorcycle evehicle custom1 custom2" speed="3.72" length="4.64" shape="10413.69,19992.78 10412.70,19993.81 10411.84,19994.05 10411.13,19993.52 10410.57,19992.20"/>
    </edge>
    <edge id=":110067281_0" function="internal">
        <lane id=":110067281_0_0" index="0" allow="private emergency authority army vip passenger hov taxi bus coach delivery truck trailer motorcycle evehicle custom1 custom2" speed="4.38" length="1.07" shape="12886.30,9696.24 12886.11,9695.99 12886.01,9695.79 12885.96,9695.58 12885.95,9695.26"/>
    </edge>
    <edge id=":110067287_0" function="internal">
        <lane id=":110067287_0_0" index="0" allow="private emergency authority army vip passenger hov taxi bus coach delivery truck trailer motorcycle evehicle custom1 custom2" speed="24.52" length="31.46" shape="12823.75,9462.72 12820.91,9457.87 12816.72,9450.77 12811.87,9442.99 12807.08,9436.07"/>
    </edge>
    <edge id=":110067287_1" function="internal">
        <lane id=":110067287_1_0" index="0" allow="private emergency authority army vip passenger hov taxi bus coach delivery truck trailer motorcycle evehicle custom1 custom2" speed="26.82" length="31.45" shape="12826.79,9460.61 12807.08,9436.07"/>
        <lane id=":110067287_1_1" index="1" allow="private emergency authority army vip passenger hov taxi bus coach delivery truck trailer motorcycle evehicle custom1 custom2" speed="26.82" length="31.45" shape="12829.29,9458.63 12809.62,9434.13"/>
    </edge>
    <edge id=":110067327_0" function="internal">
        <lane id=":110067327_0_0" index="0" allow="private emergency authority army vip passenger hov taxi bus coach delivery truck trailer motorcycle evehicle custom1 custom2" speed="4.14" length="1.35" shape="13045.18,9620.07 13045.42,9620.32 13045.60,9620.60 13045.70,9620.92 13045.75,9621.26"/>
    </edge>
    <edge id=":110071651_0" function="internal">
        <lane id=":110071651_0_0" index="0" allow="private emergency authority army vip passenger hov taxi bus coach delivery truck trailer motorcycle evehicle custom1 custom2" speed="24.59" length="25.94" shape="28826.43,6803.46 28823.96,6777.62"/>
        <lane id=":110071651_0_1" index="1" allow="private emergency authority army vip passenger hov taxi bus coach delivery truck trailer motorcycle evehicle custom1 custom2" speed="24.59" length="25.94" shape="28829.62,6803.16 28827.15,6777.36"/>
    </edge>
    <edge id=":110071651_2" function="internal">
        <lane id=":110071651_2_0" index="0" allow="private emergency authority army vip passenger hov taxi bus coach delivery truck trailer motorcycle evehicle custom1 custom2" speed="23.41" length="25.94" shape="28822.20,6803.43 28823.05,6798.74 28823.79,6792.43 28824.18,6785.17 28823.96,6777.62"/>
    </edge>
    <edge id=":110073627_0" function="internal">
        <lane id=":110073627_0_0" index="0" allow="private emergency authority army vip passenger hov taxi bus coach delivery truck trailer motorcycle evehicle custom1 custom2" speed="24.52" length="50.80" shape="11277.13,5704.68 11284.71,5654.45"/>
    </edge>
    <edge id=":110073627_1" function="internal">
        <lane id=":110073627_1_0" index="0" allow="private emergency authority army vip passenger hov taxi bus coach delivery truck trailer motorcycle evehicle custom1 custom2" speed="26.82" length="50.63" shape="11280.75,5705.13 11281.37,5694.38 11282.23,5679.72 11283.35,5665.10 11284.71,5654.45"/>
        <lane id=":110073627_1_1" index="1" allow="private emergency authority army vip passenger hov taxi bus coach delivery truck trailer motorcycle evehicle custom1 custom2" speed="26.82" length="50.63" shape="11283.94,5705.34 11284.55,5694.66 11285.40,5680.15 11286.49,5665.67 11287.85,5655.09"/>
    </edge>
    <edge id=":110082871_0" function="internal">
        <lane id=":110082871_0_0" index="0" allow="private emergency authority army vip passenger hov taxi bus coach delivery truck trailer motorcycle evehicle custom1 custom2" speed="22.22" length="0.30" shape="12846.17,10859.84 12846.07,10860.12"/>
    </edge>
    <edge id=":110090010_0" function="internal">
        <lane id=":110090010_0_0" index="0" allow="private emergency authority army vip passenger hov taxi bus coach delivery truck trailer motorcycle evehicle custom1 custom2" speed="24.52" length="26.93" shape="11306.79,6050.37 11304.04,6043.17 11300.99,6036.19 11298.14,6030.14 11296.05,6025.70"/>
    </edge>
    <edge id=":110090010_1" function="internal">
        <lane id=":110090010_1_0" index="0" allow="private emergency authority army vip passenger hov taxi bus coach delivery truck trailer motorcycle evehicle custom1 custom2" speed="26.82" length="26.91" shape="11306.79,6050.37 11299.55,6024.39"/>
        <lane id=":110090010_1_1" index="1" allow="private emergency authority army vip passenger hov taxi bus coach delivery truck trailer motorcycle evehicle custom1 custom2" speed="26.82" length="26.91" shape="11309.82,6049.34 11302.61,6023.48"/>
    </edge>
    <edge id=":110105784_0" function="internal">
        <lane id=":110105784_0_0" index="0" allow="private emergency authority army vip passenger hov taxi bus coach delivery truck trailer motorcycle evehicle custom1 custom2" speed="22.36" length="0.10" shape="28797.93,6437.75 28797.93,6437.75"/>
        <lane id=":110105784_0_1" index="1" allow="private emergency authority army vip passenger hov taxi bus coach delivery truck trailer motorcycle evehicle custom1 custom2" speed="22.36" length="0.10" shape="28801.13,6437.49 28801.13,6437.49"/>
    </edge>
    <edge id=":110112080_0" function="internal">
        <lane id=":110112080_0_0" index="0" allow="private emergency authority army vip passenger hov taxi bus coach delivery truck trailer motorcycle evehicle custom1 custom2" speed="22.22" length="0.74" shape="11448.65,6015.58 11448.85,6015.65 11448.99,6015.72 11449.11,6015.81 11449.26,6015.96"/>
    </edge>
    <edge id=":110191156_0" function="internal">
        <lane id=":110191156_0_0" index="0" allow="private emergency authority army vip passenger hov taxi bus coach delivery truck trailer motorcycle evehicle custom1 custom2" speed="29.06" length="0.28" shape="25423.98,10979.42 25424.23,10979.24"/>
        <lane id=":110191156_0_1" index="1" allow="private emergency authority army vip passenger hov taxi bus coach delivery truck trailer motorcycle evehicle custom1 custom2" speed="29.06" length="0.28" shape="25425.92,10981.97 25426.12,10981.82"/>
    </edge>
    <edge id=":110191183_0" function="internal">
        <lane id=":110191183_0_0" index="0" allow="private emergency authority army vip passenger hov taxi bus coach delivery truck trailer motorcycle evehicle custom1 custom2" speed="29.06" length="0.10" shape="28378.91,8985.37 28378.85,8985.44"/>
        <lane id=":110191183_0_1" index="1" allow="private emergency authority army vip passenger hov taxi bus coach delivery truck trailer motorcycle evehicle custom1 custom2" speed="29.06" length="0.10" shape="28381.43,8987.33 28381.49,8987.26"/>
    </edge>
    <edge id=":110191184_0" function="internal">
        <lane id=":110191184_0_0" index="0" allow="private emergency authority army vip passenger hov taxi bus coach delivery truck trailer motorcycle evehicle custom1 custom2" speed="29.06" length="0.10" shape="28441.40,8867.50 28441.37,8867.59"/>
        <lane id=":110191184_0_1" index="1" allow="private emergency authority army vip passenger hov taxi bus coach delivery truck trailer motorcycle evehicle custom1 custom2" speed="29.06" length="0.10" shape="28444.38,8868.66 28444.41,8868.57"/>
    </edge>
    <edge id=":110191195_0" function="internal">
        <lane id=":110191195_0_0" index="0" allow="private emergency authority army vip passenger hov taxi bus coach delivery truck trailer motorcycle evehicle custom1 custom2" speed="23.41" length="53.56" shape="28707.31,8050.50 28720.24,7998.52"/>
    </edge>
    <edge id=":110191195_1" function="internal">
        <lane id=":110191195_1_0" index="0" allow="private emergency authority army vip passenger hov taxi bus coach delivery truck trailer motorcycle evehicle custom1 custom2" speed="24.59" length="53.59" shape="28707.31,8050.50 28723.61,7999.47"/>
        <lane id=":110191195_1_1" index="1" allow="private emergency authority army vip passenger hov taxi bus coach delivery truck trailer motorcycle evehicle custom1 custom2" speed="24.59" length="53.59" shape="28710.34,8051.52 28726.65,8000.46"/>
    </edge>
    <edge id=":110191198_0" function="internal">
        <lane id=":110191198_0_0" index="0" allow="private emergency authority army vip passenger hov taxi bus coach delivery truck trailer motorcycle evehicle custom1 custom2" speed="24.59" length="0.30" shape="28786.65,7804.18 28786.75,7803.88"/>
        <lane id=":110191198_0_1" index="1" allow="private emergency authority army vip passenger hov taxi bus coach delivery truck trailer motorcycle evehicle custom1 custom2" speed="24.59" length="0.30" shape="28789.70,7805.16 28789.78,7804.90"/>
    </edge>
    <edge id=":110191201_0" function="internal">
        <lane id=":110191201_0_0" index="0" allow="private emergency authority army vip passenger hov taxi bus coach delivery truck trailer motorcycle evehicle custom1 custom2" speed="24.59" length="0.26" shape="28803.38,7754.06 28803.45,7753.85"/>
        <lane id=":110191201_0_1" index="1" allow="private emergency authority army vip passenger hov taxi bus coach delivery truck trailer motorcycle evehicle custom1 custom2" speed="24.59" length="0.26" shape="28806.42,7755.07 28806.51,7754.78"/>
    </edge>
    <edge id=":110191208_0" function="internal">
        <lane id=":110191208_0_0" index="0" allow="private emergency authority army vip passenger hov taxi bus coach delivery truck trailer motorcycle evehicle custom1 custom2" speed="23.41" length="92.89" shape="28867.36,7262.98 28856.16,7170.77"/>
    </edge>
    <edge id=":110191208_1" function="internal">
        <lane id=":110191208_1_0" index="0" allow="private emergency authority army vip passenger hov taxi bus coach delivery truck trailer motorcycle evehicle custom1 custom2" speed="24.59" length="92.87" shape="28867.36,7262.98 28859.67,7170.38"/>
        <lane id=":110191208_1_1" index="1" allow="private emergency authority army vip passenger hov taxi bus coach delivery truck trailer motorcycle evehicle custom1 custom2" speed="24.59" length="92.87" shape="28870.54,7262.62 28862.86,7170.12"/>
    </edge>
    <edge id=":110191221_0" function="internal">
        <lane id=":110191221_0_0" index="0" allow="private emergency authority army vip passenger hov taxi bus coach delivery truck trailer motorcycle evehicle custom1 custom2" speed="24.59" length="0.29" shape="28816.39,6686.65 28816.36,6686.34"/>
        <lane id=":110191221_0_1" index="1" allow="private emergency authority army vip passenger hov taxi bus coach delivery truck trailer motorcycle evehicle custom1 custom2" speed="24.59" length="0.29" shape="28819.58,6686.38 28819.56,6686.11"/>
    </edge>
    <edge id=":110264293_0" function="internal">
        <lane id=":110264293_0_0" index="0" allow="private emergency authority army vip passenger hov taxi bus coach delivery truck trailer motorcycle evehicle custom1 custom2" speed="22.22" length="25.04" shape="13436.73,13010.43 13433.93,12985.54"/>
    </edge>
    <edge id=":110264293_1" function="internal">
        <lane id=":110264293_1_0" index="0" allow="private emergency authority army vip passenger hov taxi bus coach delivery truck trailer motorcycle evehicle custom1 custom2" speed="22.22" length="25.10" shape="13436.73,13010.43 13436.59,13005.11 13436.76,12997.90 13437.04,12990.67 13437.24,12985.35"/>
    </edge>
    <edge id=":1703871288_0" function="internal">
        <lane id=":1703871288_0_0" index="0" allow="private emergency authority army vip passenger hov taxi bus coach delivery truck trailer motorcycle evehicle custom1 custom2" speed="22.22" length="13.75" shape="15803.36,10993.56 15803.73,10990.08 15803.38,10986.76 15802.95,10983.42 15803.05,10979.88"/>
    </edge>
    <edge id=":1703871288_1" function="internal">
        <lane id=":1703871288_1_0" index="0" allow="private emergency authority army vip passenger hov taxi bus coach delivery truck trailer motorcycle evehicle custom1 custom2" speed="22.22" length="13.79" shape="15803.36,10993.56 15806.46,10980.13"/>
    </edge>
    <edge id=":1703871333_0" function="internal">
        <lane id=":1703871333_0_0" index="0" allow="private emergency authority army vip passenger hov taxi bus coach delivery truck trailer motorcycle evehicle custom1 custom2" speed="22.22" length="0.10" shape="12858.25,15858.16 12858.25,15858.16"/>
    </edge>
    <edge id=":1703871371_0" function="internal">
        <lane id=":1703871371_0_0" index="0" allow="private emergency authority army vip passenger hov taxi bus coach delivery truck trailer motorcycle evehicle custom1 custom2" speed="22.22" length="14.28" shape="12544.92,15984.76 12545.80,15988.30 12546.61,15991.73 12547.65,15995.07 12549.21,15998.32"/>
    </edge>
    <edge id=":1703871371_1" function="internal">
        <lane id=":1703871371_1_0" index="0" allow="private emergency authority army vip passenger hov taxi bus coach delivery truck trailer motorcycle evehicle custom1 custom2" speed="22.22" length="14.28" shape="12541.63,15986.22 12549.21,15998.32"/>
    </edge>
    <edge id=":1840271394_0" function="internal">
        <lane id=":1840271394_0_0" index="0" allow="private emergency authority army vip passenger hov taxi bus coach delivery truck trailer motorcycle evehicle custom1 custom2" speed="22.22" length="42.00" shape="12698.30,16047.53 12675.63,16082.89"/>
    </edge>
    <edge id=":1840271394_1" function="internal">
        <lane id=":1840271394_1_0" index="0" allow="private emergency authority army vip passenger hov taxi bus coach delivery truck trailer motorcycle evehicle custom1 custom2" speed="22.22" length="41.98" shape="12695.40,16045.85 12675.63,16082.89"/>
    </edge>
    <edge id=":1840271406_0" function="internal">
        <lane id=":1840271406_0_0" index="0" allow="private emergency authority army vip passenger hov taxi bus coach delivery truck trailer motorcycle evehicle custom1 custom2" speed="19.58" length="8.31" shape="12854.38,15893.53 12852.48,15895.11 12851.11,15896.17 12849.98,15897.41 12848.78,15899.52"/>
    </edge>
    <edge id=":1840271406_1" function="internal">
        <lane id=":1840271406_1_0" index="0" allow="private emergency authority army vip passenger hov taxi bus coach delivery truck trailer motorcycle evehicle custom1 custom2" speed="22.22" length="8.31" shape="12850.96,15891.55 12850.50,15893.97 12850.21,15895.65 12849.76,15897.27 12848.78,15899.52"/>
    </edge>
    <edge id=":1840271424_0" function="internal">
        <lane id=":1840271424_0_0" index="0" allow="private emergency authority army vip passenger hov taxi bus coach delivery truck trailer motorcycle evehicle custom1 custom2" speed="22.22" length="53.08" shape="12616.95,16186.47 12593.55,16234.11"/>
    </edge>
    <edge id=":1840271424_1" function="internal">
        <lane id=":1840271424_1_0" index="0" allow="private emergency authority army vip passenger hov taxi bus coach delivery truck trailer motorcycle evehicle custom1 custom2" speed="22.22" length="53.10" shape="12616.95,16186.47 12590.65,16232.60"/>
    </edge>
    <edge id=":1840711722_0" function="internal">
        <lane id=":1840711722_0_0" index="0" allow="private emergency authority army vip passenger hov taxi bus coach delivery truck trailer motorcycle evehicle custom1 custom2" speed="26.82" length="0.30" shape="12876.93,14871.49 12876.98,14871.79"/>
        <lane id=":1840711722_0_1" index="1" allow="private emergency authority army vip passenger hov taxi bus coach delivery truck trailer motorcycle evehicle custom1 custom2" speed="26.82" length="0.30" shape="12873.78,14872.02 12873.82,14872.32"/>
        <lane id=":1840711722_0_2" index="2" allow="private emergency authority army vip passenger hov taxi bus coach delivery truck trailer motorcycle evehicle custom1 custom2" speed="26.82" length="0.30" shape="12870.62,14872.55 12870.67,14872.84"/>
    </edge>
    <edge id=":1840711723_0" function="internal">
        <lane id=":1840711723_0_0" index="0" allow="private emergency authority army vip passenger hov taxi bus coach delivery truck trailer motorcycle evehicle custom1 custom2" speed="24.52" length="8.27" shape="12905.81,15450.37 12905.85,15448.06 12905.06,15446.49 12904.16,15444.90 12903.90,15442.54"/>
    </edge>
    <edge id=":1840711723_1" function="internal">
        <lane id=":1840711723_1_0" index="0" allow="private emergency authority army vip passenger hov taxi bus coach delivery truck trailer motorcycle evehicle custom1 custom2" speed="26.82" length="7.63" shape="12902.95,15449.91 12903.90,15442.54"/>
        <lane id=":1840711723_1_1" index="1" allow="private emergency authority army vip passenger hov taxi bus coach delivery truck trailer motorcycle evehicle custom1 custom2" speed="26.82" length="7.63" shape="12906.11,15450.42 12907.08,15442.85"/>
        <lane id=":1840711723_1_2" index="2" allow="private emergency authority army vip passenger hov taxi bus coach delivery truck trailer motorcycle evehicle custom1 custom2" speed="26.82" length="7.63" shape="12909.26,15450.93 12910.27,15443.15"/>
    </edge>
    <edge id=":1840711728_0" function="internal">
        <lane id=":1840711728_0_0" index="0" allow="private emergency authority army vip passenger hov taxi bus coach delivery truck trailer motorcycle evehicle custom1 custom2" speed="22.22" length="36.14" shape="12662.51,15982.43 12666.63,15976.71 12672.86,15967.62 12678.96,15958.44 12682.70,15952.47"/>
    </edge>
    <edge id=":1840711728_1" function="internal">
        <lane id=":1840711728_1_0" index="0" allow="private emergency authority army vip passenger hov taxi bus coach delivery truck trailer motorcycle evehicle custom1 custom2" speed="22.22" length="36.10" shape="12665.49,15984.20 12682.70,15952.47"/>
    </edge>
    <edge id=":1840711736_0" function="internal">
        <lane id=":1840711736_0_0" index="0" allow="private emergency authority army vip passenger hov taxi bus coach delivery truck trailer motorcycle evehicle custom1 custom2" speed="22.22" length="49.52" shape="12535.93,16219.39 12556.95,16174.55"/>
    </edge>
    <edge id=":1840711736_1" function="internal">
        <lane id=":1840711736_1_0" index="0" allow="private emergency authority army vip passenger hov taxi bus coach delivery truck trailer motorcycle evehicle custom1 custom2" speed="22.22" length="49.52" shape="12535.93,16219.39 12559.90,16176.06"/>
    </edge>
    <edge id=":1840711738_0" function="internal">
        <lane id=":1840711738_0_0" index="0" allow="private emergency authority army vip passenger hov taxi bus coach delivery truck trailer motorcycle evehicle custom1 custom2" speed="22.22" length="45.24" shape="12483.10,16306.82 12487.91,16299.84 12495.84,16288.12 12503.67,16276.35 12508.21,16269.20"/>
    </edge>
    <edge id=":1840711738_1" function="internal">
        <lane id=":1840711738_1_0" index="0" allow="private emergency authority army vip passenger hov taxi bus coach delivery truck trailer motorcycle evehicle custom1 custom2" speed="22.22" length="45.20" shape="12485.98,16308.56 12508.21,16269.20"/>
    </edge>
    <edge id=":1840711743_0" function="internal">
        <lane id=":1840711743_0_0" index="0" allow="private emergency authority army vip passenger hov taxi bus coach delivery truck trailer motorcycle evehicle custom1 custom2" speed="22.22" length="15.49" shape="12260.09,16441.23 12264.77,16426.47"/>
    </edge>
    <edge id=":1840711743_1" function="internal">
        <lane id=":1840711743_1_0" index="0" allow="private emergency authority army vip passenger hov taxi bus coach delivery truck trailer motorcycle evehicle custom1 custom2" speed="22.22" length="15.49" shape="12260.09,16441.23 12261.62,16437.76 12263.64,16434.41 12265.86,16431.16 12268.00,16427.96"/>
    </edge>
    <edge id=":1840711750_0" function="internal">
        <lane id=":1840711750_0_0" index="0" allow="private emergency authority army vip passenger hov taxi bus coach delivery truck trailer motorcycle evehicle custom1 custom2" speed="22.22" length="0.10" shape="12570.75,16525.73 12570.75,16525.73"/>
    </edge>
    <edge id=":1840714343_0" function="internal">
        <lane id=":1840714343_0_0" index="0" allow="private emergency authority army vip passenger hov taxi bus coach delivery truck trailer motorcycle evehicle custom1 custom2" speed="22.22" length="0.21" shape="10136.94,19912.94 10136.97,19912.88 10136.98,19912.84 10137.00,19912.80 10137.03,19912.75"/>
    </edge>
    <edge id=":1840714356_0" function="internal">
        <lane id=":1840714356_0_0" index="0" allow="private emergency authority army vip passenger hov taxi bus coach delivery truck trailer motorcycle evehicle custom1 custom2" speed="22.22" length="29.88" shape="10035.64,20130.41 10039.79,20125.95 10045.85,20119.44 10051.71,20112.80 10055.27,20107.93"/>
    </edge>
    <edge id=":1840714356_1" function="internal">
        <lane id=":1840714356_1_0" index="0" allow="private emergency authority army vip passenger hov taxi bus coach delivery truck trailer motorcycle evehicle custom1 custom2" speed="22.22" length="29.89" shape="10038.27,20132.51 10041.82,20127.57 10047.00,20120.35 10052.06,20113.07 10055.27,20107.93"/>
    </edge>
    <edge id=":1840714388_0" function="internal">
        <lane id=":1840714388_0_0" index="0" allow="private emergency authority army vip passenger hov taxi bus coach delivery truck trailer motorcycle evehicle custom1 custom2" speed="24.52" length="50.94" shape="9708.98,20792.70 9735.18,20749.01"/>
    </edge>
    <edge id=":1840714388_1" function="internal">
        <lane id=":1840714388_1_0" index="0" allow="private emergency authority army vip passenger hov taxi bus coach delivery truck trailer motorcycle evehicle custom1 custom2" speed="26.82" length="50.95" shape="9708.98,20792.70 9738.12,20750.90"/>